Version 4
SHEET 1 3136 1132
WIRE 128 -400 32 -400
WIRE 144 -400 128 -400
WIRE 32 -320 32 -400
WIRE 32 -192 32 -240
WIRE 912 192 816 192
WIRE 1136 192 912 192
WIRE 1296 192 1136 192
WIRE 1376 192 1296 192
WIRE 1712 192 1456 192
WIRE 1296 224 1296 192
WIRE 1712 224 1712 192
WIRE -704 240 -736 240
WIRE -592 240 -624 240
WIRE -464 240 -528 240
WIRE -288 240 -464 240
WIRE -144 240 -288 240
WIRE 208 240 -64 240
WIRE 400 240 288 240
WIRE -288 272 -288 240
WIRE -736 288 -736 240
WIRE 1136 288 1136 192
WIRE -464 304 -464 240
WIRE 400 304 400 240
WIRE 816 304 816 192
WIRE 1296 352 1296 304
WIRE 1712 352 1712 304
WIRE -288 384 -288 352
WIRE -736 464 -736 368
WIRE -464 464 -464 368
WIRE -464 464 -736 464
WIRE -288 464 -288 448
WIRE -288 464 -464 464
WIRE 400 464 400 384
WIRE 400 464 -288 464
WIRE 816 464 816 384
WIRE 816 464 400 464
WIRE 1136 464 1136 352
WIRE 1136 464 816 464
WIRE 1296 464 1296 416
WIRE 1296 464 1136 464
WIRE 1712 464 1712 432
WIRE 1712 464 1296 464
WIRE -736 496 -736 464
FLAG -736 496 0
FLAG 912 192 Out
FLAG 32 -192 0
FLAG 128 -400 Alpha
SYMBOL voltage -736 272 R0
WINDOW 123 0 0 Left 2
WINDOW 39 0 0 Left 2
SYMATTR InstName V1
SYMATTR Value 12.05
SYMBOL ind -160 256 R270
WINDOW 0 32 56 VTop 2
WINDOW 3 5 56 VBottom 2
SYMATTR InstName L1
SYMATTR Value 3m
SYMBOL bv 400 288 R0
SYMATTR InstName B1
SYMATTR Value V=(1-V(Alpha))*V(out)
SYMBOL bi 816 384 R180
WINDOW 0 24 80 Left 2
WINDOW 3 -248 -26 Left 2
SYMATTR InstName B2
SYMATTR Value I=(1-V(Alpha))*I(L1)
SYMBOL res 1696 208 R0
SYMATTR InstName R1
SYMATTR Value 10m
SYMBOL res 304 224 R90
WINDOW 0 0 56 VBottom 2
WINDOW 3 32 56 VTop 2
SYMATTR InstName R2
SYMATTR Value 0.01
SYMBOL voltage 32 -336 R0
WINDOW 123 0 0 Left 0
WINDOW 39 0 0 Left 0
SYMATTR InstName V2
SYMATTR Value PULSE(0.7 0.78 10m 1u 1u 200m 500m)
SYMBOL res -608 224 R90
WINDOW 0 0 56 VBottom 2
WINDOW 3 32 56 VTop 2
SYMATTR InstName R3
SYMATTR Value 0.1
SYMBOL voltage 1712 336 R0
WINDOW 123 0 0 Left 0
WINDOW 39 0 0 Left 0
SYMATTR InstName V3
SYMATTR Value 48
SYMBOL cap -480 304 R0
SYMATTR InstName C1
SYMATTR Value 4.7µ
SYMBOL cap 1120 288 R0
SYMATTR InstName C2
SYMATTR Value 76µ
SYMBOL ind 1360 208 R270
WINDOW 0 32 56 VTop 2
WINDOW 3 5 56 VBottom 2
SYMATTR InstName L2
SYMATTR Value 3m
SYMBOL cap 1280 352 R0
SYMATTR InstName C3
SYMATTR Value 760µ
SYMBOL res 1280 208 R0
SYMATTR InstName R4
SYMATTR Value 4.7
SYMBOL diode -592 256 R270
WINDOW 0 32 32 VTop 2
WINDOW 3 0 32 VBottom 2
SYMATTR InstName D1
SYMBOL res -304 256 R0
SYMATTR InstName R5
SYMATTR Value 10
SYMBOL cap -304 384 R0
SYMATTR InstName C4
SYMATTR Value 47µ
TEXT -568 -344 Left 2 !.tran 0 200m 0
TEXT -576 -416 Left 4 ;Commande
TEXT -880 264 Left 2 ;PV
TEXT -424 176 Left 2 !.IC I(L1)=0
