Version 4
SHEET 1 3136 1132
WIRE 128 -400 32 -400
WIRE 144 -400 128 -400
WIRE 32 -320 32 -400
WIRE 32 -192 32 -240
WIRE 912 192 816 192
WIRE 1152 192 912 192
WIRE 1280 192 1152 192
WIRE 64 240 0 240
WIRE 208 240 144 240
WIRE 400 240 288 240
WIRE 0 288 0 240
WIRE 400 304 400 240
WIRE 816 304 816 192
WIRE 1280 304 1280 192
WIRE 1152 320 1152 192
WIRE 0 464 0 368
WIRE 400 464 400 384
WIRE 400 464 0 464
WIRE 816 464 816 384
WIRE 816 464 400 464
WIRE 1152 464 1152 384
WIRE 1152 464 816 464
WIRE 1280 464 1280 384
WIRE 1280 464 1152 464
WIRE 0 496 0 464
FLAG 0 496 0
FLAG 912 192 Out
FLAG 32 -192 0
FLAG 128 -400 Alpha
SYMBOL voltage 0 272 R0
WINDOW 123 0 0 Left 2
WINDOW 39 0 0 Left 2
SYMATTR InstName V1
SYMATTR Value 12.05
SYMBOL ind 48 256 R270
WINDOW 0 32 56 VTop 2
WINDOW 3 5 56 VBottom 2
SYMATTR InstName L1
SYMATTR Value 1m
SYMBOL bv 400 288 R0
SYMATTR InstName B1
SYMATTR Value V=(1-V(Alpha))*V(out)
SYMBOL bi 816 384 R180
WINDOW 0 24 80 Left 2
WINDOW 3 -248 -26 Left 2
SYMATTR InstName B2
SYMATTR Value I=(1-V(Alpha))*I(L1)
SYMBOL cap 1136 320 R0
SYMATTR InstName C1
SYMATTR Value 10µ
SYMBOL res 1264 288 R0
SYMATTR InstName R1
SYMATTR Value 24
SYMBOL res 304 224 R90
WINDOW 0 0 56 VBottom 2
WINDOW 3 32 56 VTop 2
SYMATTR InstName R2
SYMATTR Value 0.01
SYMBOL voltage 32 -336 R0
WINDOW 123 0 0 Left 0
WINDOW 39 0 0 Left 0
SYMATTR InstName V2
SYMATTR Value PULSE(0.5 0.75 10m 1u 1u 100m 500m)
TEXT -568 -344 Left 2 !.tran 0 200m 0
TEXT -576 -416 Left 4 ;Commande
TEXT -144 264 Left 2 ;UBatt
