Version 4
SHEET 1 3136 1132
WIRE -944 -192 -976 -192
WIRE -896 -192 -944 -192
WIRE -640 -192 -688 -192
WIRE -608 -192 -640 -192
WIRE -976 -96 -976 -192
WIRE -688 -96 -688 -192
WIRE 848 -32 384 -32
WIRE 1456 -32 848 -32
WIRE 1456 16 1456 -32
WIRE -976 32 -976 -16
WIRE -688 32 -688 -16
WIRE 384 48 384 -32
WIRE 336 64 272 64
WIRE 336 112 304 112
WIRE 304 160 304 112
WIRE 384 160 384 128
WIRE 384 160 304 160
WIRE -1232 176 -1328 176
WIRE -736 176 -832 176
WIRE 1456 192 1456 96
WIRE -1328 208 -1328 176
WIRE -832 208 -832 176
WIRE 384 224 384 160
WIRE 64 240 0 240
WIRE 384 240 384 224
WIRE 384 240 144 240
WIRE 0 288 0 240
WIRE 384 304 384 240
WIRE 336 320 272 320
WIRE 336 368 304 368
WIRE -1328 448 -1328 288
WIRE -1232 448 -1328 448
WIRE -832 448 -832 288
WIRE 0 464 0 368
WIRE 304 464 304 368
WIRE 304 464 0 464
WIRE 384 464 384 384
WIRE 384 464 304 464
WIRE 1456 464 1456 272
WIRE 1456 464 384 464
WIRE 0 496 0 464
FLAG 0 496 0
FLAG -944 -192 Modulant
FLAG -688 32 0
FLAG -976 32 0
FLAG -640 -192 Triangle
FLAG -832 448 0
FLAG -736 176 cmd_L
FLAG -1232 176 cmd_H
FLAG 384 224 SWNode
FLAG 272 320 cmd_L
FLAG 272 64 cmd_H
FLAG -1232 448 SWNode
FLAG 848 -32 Out
SYMBOL sw 384 400 M180
SYMATTR InstName k2
SYMATTR Value MYSW
SYMBOL voltage 0 272 R0
WINDOW 123 0 0 Left 2
WINDOW 39 0 0 Left 2
SYMATTR InstName V1
SYMATTR Value 12.05
SYMBOL voltage -688 -112 R0
WINDOW 123 0 0 Left 2
WINDOW 39 0 0 Left 2
WINDOW 3 -67 189 Left 2
SYMATTR Value PULSE(0 +1 0 {0.5/Freq} {0.5/Freq} 0 {1/Freq} )
SYMATTR InstName V3
SYMBOL voltage -976 -112 R0
WINDOW 123 0 0 Left 2
WINDOW 39 0 0 Left 2
WINDOW 3 24 44 Left 2
SYMATTR Value 0.75
SYMATTR InstName V4
SYMBOL bv -832 192 R0
SYMATTR InstName PWML
SYMATTR Value V=if(V(Modulant)>V(Triangle),5,0)
SYMBOL bv -1328 192 R0
SYMATTR InstName PWMH
SYMATTR Value V=if(V(Modulant)<V(Triangle),5,0)
SYMBOL ind 48 256 R270
WINDOW 0 32 56 VTop 2
WINDOW 3 5 56 VBottom 2
SYMATTR InstName L1
SYMATTR Value 1m
SYMBOL voltage 1456 176 R0
WINDOW 123 0 0 Left 2
WINDOW 39 0 0 Left 2
SYMATTR InstName V2
SYMATTR Value 48
SYMBOL res 1440 0 R0
SYMATTR InstName R1
SYMATTR Value 0.1
SYMBOL sw 384 144 M180
SYMATTR InstName k1
SYMATTR Value MYSW
TEXT 0 -152 Left 2 !.model MYSW SW(Ron=1m Roff=1Meg Vt=2)
TEXT -568 -344 Left 2 !.tran 0 10m 0 5n
TEXT 0 -112 Left 2 ;http://www.linear.com/solutions/5735
TEXT -64 -408 Left 4 ;Modele du pont en H
TEXT -576 -416 Left 4 ;Commande
TEXT -568 -368 Left 2 !.param Freq=100k
TEXT -144 264 Left 2 ;UBatt
TEXT -920 -264 Left 2 ;Generation PWM (MLI)
TEXT 64 184 Left 2 !.ic I(L1)=8
TEXT -104 -32 Left 2 !;op 0 2m 0 20n uic
TEXT 640 104 Left 2 !.IC V(out)=48.1
