Version 4
SHEET 1 3136 1132
WIRE -944 -192 -976 -192
WIRE -896 -192 -944 -192
WIRE -640 -192 -688 -192
WIRE -608 -192 -640 -192
WIRE -976 -96 -976 -192
WIRE -688 -96 -688 -192
WIRE 1216 -32 736 -32
WIRE 1360 -32 1216 -32
WIRE 1632 -32 1440 -32
WIRE -976 32 -976 -16
WIRE -688 32 -688 -16
WIRE 736 48 736 -32
WIRE 688 64 640 64
WIRE 688 112 640 112
WIRE 1216 112 1216 -32
WIRE 1632 144 1632 -32
WIRE -1168 160 -1264 160
WIRE -624 160 -720 160
WIRE -1264 192 -1264 160
WIRE -720 192 -720 160
WIRE 208 192 0 192
WIRE 352 192 288 192
WIRE 736 192 736 128
WIRE 736 192 432 192
WIRE 800 192 736 192
WIRE 1216 224 1216 176
WIRE 736 240 736 192
WIRE 0 256 0 192
WIRE 688 256 656 256
WIRE 688 304 656 304
WIRE 0 400 0 336
WIRE 736 400 736 320
WIRE 736 400 0 400
WIRE 1216 400 1216 304
WIRE 1216 400 736 400
WIRE 1632 400 1632 224
WIRE 1632 400 1216 400
WIRE -1264 432 -1264 272
WIRE -1168 432 -1264 432
WIRE -720 432 -720 272
WIRE -624 432 -720 432
WIRE 0 432 0 400
FLAG 800 192 SW_Node
FLAG 0 432 0
FLAG -944 -192 Modulant
FLAG -688 32 0
FLAG -976 32 0
FLAG -640 -192 Triangle
FLAG -1168 160 cmd_L
FLAG -624 160 cmd_H
FLAG 640 64 cmd_H
FLAG 656 256 cmd_L
FLAG 640 112 Ref_H
FLAG -624 432 Ref_H
FLAG 656 304 Ref_L
FLAG -1168 432 Ref_L
SYMBOL sw 736 144 M180
SYMATTR InstName k1
SYMATTR Value MYSW
SYMBOL sw 736 336 M180
SYMATTR InstName k2
SYMATTR Value MYSW
SYMBOL voltage 1632 128 R0
WINDOW 123 0 0 Left 2
WINDOW 39 0 0 Left 2
SYMATTR InstName V1
SYMATTR Value 50
SYMBOL voltage -688 -112 R0
WINDOW 123 0 0 Left 2
WINDOW 39 0 0 Left 2
WINDOW 3 -67 189 Left 2
SYMATTR Value PULSE(0 +1 0 {0.5/Freq} {0.5/Freq} 0 {1/Freq} 2000)
SYMATTR InstName V3
SYMBOL voltage -976 -112 R0
WINDOW 123 0 0 Left 2
WINDOW 39 0 0 Left 2
WINDOW 3 42 67 Left 2
SYMATTR Value 0.364
SYMATTR InstName V4
SYMBOL bv -1264 176 R0
SYMATTR InstName PWM
SYMATTR Value V=if(V(Modulant)>V(Triangle),5,0)
SYMBOL bv -720 176 R0
SYMATTR InstName PWM1
SYMATTR Value V=if(V(Modulant)<V(Triangle),5,0)
SYMBOL ind 192 208 R270
WINDOW 0 32 56 VTop 2
WINDOW 3 5 56 VBottom 2
SYMATTR InstName L1
SYMATTR Value 100µ
SYMBOL res 448 176 R90
WINDOW 0 0 56 VBottom 2
WINDOW 3 32 56 VTop 2
SYMATTR InstName R1
SYMATTR Value 0.01
SYMBOL voltage 0 240 R0
WINDOW 123 0 0 Left 2
WINDOW 39 0 0 Left 2
SYMATTR InstName V2
SYMATTR Value 35
SYMBOL cap 1200 112 R0
SYMATTR InstName C1
SYMATTR Value 272µ
SYMBOL res 1200 208 R0
SYMATTR InstName R_ESR
SYMATTR Value 4m
SYMBOL res 1456 -48 R90
WINDOW 0 0 56 VBottom 2
WINDOW 3 32 56 VTop 2
SYMATTR InstName R2
SYMATTR Value 1.66
TEXT 0 -152 Left 2 !.model MYSW SW(Ron=1m Roff=1Meg Vt=2)
TEXT -568 -344 Left 2 !.tran 0 10m 0 10n
TEXT 0 -112 Left 2 ;http://www.linear.com/solutions/5735
TEXT -64 -408 Left 4 ;Modele du pont en H
TEXT -576 -416 Left 4 ;Commande
TEXT -568 -368 Left 2 !.param Freq=100k
TEXT 1568 136 Left 2 ;UBatt
TEXT -920 -264 Left 2 ;Generation PWM (MLI)
TEXT 1696 -192 Left 2 !;op 0 1m 0 10n
TEXT 112 72 Left 2 !.ic I(L1)=4.71
TEXT 1080 -152 Left 2 ;IsMoy maxi = 3A
TEXT 128 -656 Left 2 ;Voir doc de conception.\nValidation L et C en terme de puissance et d'ondulation\nafin de simplifier un peu les courant / tension stationnaires, on insère une résistance\nsérie artificielle avec la batterie.
LINE Normal -80 -496 608 -496 2
LINE Normal 608 512 -80 512 2
LINE Normal 1984 512 608 512 2
LINE Normal 1984 -496 1984 512 2
LINE Normal 608 -496 1984 -496 2
RECTANGLE Normal -1360 496 -80 -496 2
