Version 4
SHEET 1 3136 1132
WIRE -944 -192 -976 -192
WIRE -896 -192 -944 -192
WIRE -640 -192 -688 -192
WIRE -608 -192 -640 -192
WIRE -976 -96 -976 -192
WIRE -688 -96 -688 -192
WIRE 208 -32 0 -32
WIRE 464 -32 208 -32
WIRE -976 32 -976 -16
WIRE -688 32 -688 -16
WIRE 208 48 208 -32
WIRE 160 64 96 64
WIRE 160 112 96 112
WIRE 0 144 0 -32
WIRE -1168 160 -1264 160
WIRE -624 160 -720 160
WIRE -1264 192 -1264 160
WIRE -720 192 -720 160
WIRE 208 192 208 128
WIRE 272 192 208 192
WIRE 480 192 272 192
WIRE 608 192 560 192
WIRE 208 240 208 192
WIRE 160 256 128 256
WIRE 160 304 128 304
WIRE 128 368 128 304
WIRE 208 368 208 320
WIRE 208 368 128 368
WIRE 0 400 0 224
WIRE 208 400 208 368
WIRE 208 400 0 400
WIRE 608 400 608 192
WIRE 608 400 208 400
WIRE -1264 432 -1264 272
WIRE -720 432 -720 272
WIRE -624 432 -720 432
WIRE 0 432 0 400
FLAG 272 192 SW_Node
FLAG 0 432 0
FLAG -944 -192 Modulant
FLAG -688 32 0
FLAG -976 32 0
FLAG -640 -192 Triangle
FLAG -1264 432 0
FLAG -1168 160 cmd_L
FLAG -624 160 cmd_H
FLAG 96 64 cmd_H
FLAG 128 256 cmd_L
FLAG 96 112 Ref_H
FLAG -624 432 Ref_H
SYMBOL sw 208 144 M180
SYMATTR InstName k1
SYMATTR Value MYSW
SYMBOL sw 208 336 M180
SYMATTR InstName k2
SYMATTR Value MYSW
SYMBOL voltage 0 128 R0
WINDOW 123 0 0 Left 2
WINDOW 39 0 0 Left 2
SYMATTR InstName V1
SYMATTR Value 24
SYMBOL voltage -688 -112 R0
WINDOW 123 0 0 Left 2
WINDOW 39 0 0 Left 2
WINDOW 3 -67 189 Left 2
SYMATTR Value PULSE(0 +1 0 {0.5/Freq} {0.5/Freq} 0 {1/Freq} 2000)
SYMATTR InstName V3
SYMBOL voltage -976 -112 R0
WINDOW 123 0 0 Left 2
WINDOW 39 0 0 Left 2
WINDOW 3 -99 187 Left 2
SYMATTR Value PULSE(0.5 0.6 2m 1p 1p 2 2)
SYMATTR InstName V4
SYMBOL bv -1264 176 R0
SYMATTR InstName PWM
SYMATTR Value V=if(V(Modulant)<V(Triangle),5,0)
SYMBOL bv -720 176 R0
SYMATTR InstName PWM1
SYMATTR Value V=if(V(Modulant)>V(Triangle),5,0)
SYMBOL current 480 192 R270
WINDOW 0 32 40 VTop 2
WINDOW 3 -32 40 VBottom 2
WINDOW 123 0 0 Left 0
WINDOW 39 0 0 Left 0
SYMATTR InstName I1
SYMATTR Value 4
TEXT 0 -152 Left 2 !.model MYSW SW(Ron=1m Roff=1Meg Vt=2)
TEXT -568 -344 Left 2 !.tran 0 1m 0 10n
TEXT 0 -112 Left 2 ;http://www.linear.com/solutions/5735
TEXT -64 -408 Left 4 ;Modele du pont en H
TEXT -576 -416 Left 4 ;Commande
TEXT -568 -368 Left 2 !.param Freq=100k
TEXT -64 136 Left 2 ;UBatt
TEXT -920 -264 Left 2 ;Generation PWM (MLI)
TEXT 816 -192 Left 2 !;op 0 1m 0 10n
LINE Normal -80 -496 608 -496 2
LINE Normal 608 512 -80 512 2
LINE Normal 1104 512 608 512 2
LINE Normal 1104 -496 1104 512 2
LINE Normal 608 -496 1104 -496 2
RECTANGLE Normal -1360 496 -80 -496 2
