Version 4
SHEET 1 3136 1132
WIRE -944 -192 -976 -192
WIRE -896 -192 -944 -192
WIRE -640 -192 -688 -192
WIRE -608 -192 -640 -192
WIRE -976 -96 -976 -192
WIRE -688 -96 -688 -192
WIRE 336 -32 0 -32
WIRE 752 -32 336 -32
WIRE -976 32 -976 -16
WIRE -688 32 -688 -16
WIRE 336 48 336 -32
WIRE 288 64 240 64
WIRE 288 112 240 112
WIRE 752 144 752 -32
WIRE -1168 160 -1264 160
WIRE -624 160 -720 160
WIRE -1264 192 -1264 160
WIRE -720 192 -720 160
WIRE 48 192 0 192
WIRE 336 192 336 128
WIRE 336 192 128 192
WIRE 400 192 336 192
WIRE 336 240 336 192
WIRE 288 256 256 256
WIRE 288 304 256 304
WIRE 0 400 0 192
WIRE 336 400 336 320
WIRE 336 400 0 400
WIRE 752 400 752 224
WIRE 752 400 336 400
WIRE -1264 432 -1264 272
WIRE -1168 432 -1264 432
WIRE -720 432 -720 272
WIRE -624 432 -720 432
WIRE 0 432 0 400
FLAG 400 192 SW_Node
FLAG 0 432 0
FLAG -944 -192 Modulant
FLAG -688 32 0
FLAG -976 32 0
FLAG -640 -192 Triangle
FLAG -1168 160 cmd_L
FLAG -624 160 cmd_H
FLAG 240 64 cmd_H
FLAG 256 256 cmd_L
FLAG 240 112 Ref_H
FLAG -624 432 Ref_H
FLAG 256 304 Ref_L
FLAG -1168 432 Ref_L
SYMBOL sw 336 144 M180
SYMATTR InstName k1
SYMATTR Value MYSW
SYMBOL sw 336 336 M180
SYMATTR InstName k2
SYMATTR Value MYSW
SYMBOL voltage 752 128 R0
WINDOW 123 0 0 Left 2
WINDOW 39 0 0 Left 2
SYMATTR InstName V1
SYMATTR Value 24
SYMBOL voltage -688 -112 R0
WINDOW 123 0 0 Left 2
WINDOW 39 0 0 Left 2
WINDOW 3 -67 189 Left 2
SYMATTR Value PULSE(0 +1 0 {0.5/Freq} {0.5/Freq} 0 {1/Freq} 2000)
SYMATTR InstName V3
SYMBOL voltage -976 -112 R0
WINDOW 123 0 0 Left 2
WINDOW 39 0 0 Left 2
WINDOW 3 42 67 Left 2
SYMATTR Value 0.4
SYMATTR InstName V4
SYMBOL bv -1264 176 R0
SYMATTR InstName PWM
SYMATTR Value V=if(V(Modulant)>V(Triangle),5,0)
SYMBOL bv -720 176 R0
SYMATTR InstName PWM1
SYMATTR Value V=if(V(Modulant)<V(Triangle),5,0)
SYMBOL current 48 192 R270
WINDOW 0 32 40 VTop 2
WINDOW 3 -32 40 VBottom 2
WINDOW 123 0 0 Left 0
WINDOW 39 0 0 Left 0
SYMATTR InstName I1
SYMATTR Value 4
TEXT 0 -152 Left 2 !.model MYSW SW(Ron=1m Roff=1Meg Vt=2)
TEXT -568 -344 Left 2 !.tran 0 1m 0 10n
TEXT 0 -112 Left 2 ;http://www.linear.com/solutions/5735
TEXT -64 -408 Left 4 ;Modele du pont en H
TEXT -576 -416 Left 4 ;Commande
TEXT -568 -368 Left 2 !.param Freq=100k
TEXT 688 136 Left 2 ;UBatt
TEXT -920 -264 Left 2 ;Generation PWM (MLI)
TEXT 816 -192 Left 2 !;op 0 1m 0 10n
LINE Normal -80 -496 608 -496 2
LINE Normal 608 512 -80 512 2
LINE Normal 1104 512 608 512 2
LINE Normal 1104 -496 1104 512 2
LINE Normal 608 -496 1104 -496 2
RECTANGLE Normal -1360 496 -80 -496 2
